conformer_63
     RDKit          3D

 15 14  0  0  0  0  0  0  0  0999 V2000
    1.4915    0.5009   -0.5887 C   0  0  0  0  0  0  0  0  0  0  0  0
    0.7955   -0.0876    0.6318 C   0  0  0  0  0  0  0  0  0  0  0  0
   -0.7351   -0.0741    0.5543 C   0  0  2  0  0  0  0  0  0  0  0  0
   -1.2892   -0.9075   -0.5921 C   0  0  0  0  0  0  0  0  0  0  0  0
   -1.2103    1.2607    0.4057 O   0  0  0  0  0  0  0  0  0  0  0  0
    1.2953   -0.0930   -1.4861 H   0  0  0  0  0  0  0  0  0  0  0  0
    2.5749    0.5131   -0.4308 H   0  0  0  0  0  0  0  0  0  0  0  0
    1.1687    1.5297   -0.7756 H   0  0  0  0  0  0  0  0  0  0  0  0
    1.1479   -1.1137    0.7883 H   0  0  0  0  0  0  0  0  0  0  0  0
    1.1073    0.4975    1.5059 H   0  0  0  0  0  0  0  0  0  0  0  0
   -1.1398   -0.4632    1.4958 H   0  0  0  0  0  0  0  0  0  0  0  0
   -2.3839   -0.9259   -0.5484 H   0  0  0  0  0  0  0  0  0  0  0  0
   -1.0303   -0.4774   -1.5651 H   0  0  0  0  0  0  0  0  0  0  0  0
   -0.9243   -1.9380   -0.5490 H   0  0  0  0  0  0  0  0  0  0  0  0
   -0.8683    1.7787    1.1542 H   0  0  0  0  0  0  0  0  0  0  0  0
  1  2  1  0
  2  3  1  0
  3  4  1  0
  3  5  1  0
  1  6  1  0
  1  7  1  0
  1  8  1  0
  2  9  1  0
  2 10  1  0
  3 11  1  1
  4 12  1  0
  4 13  1  0
  4 14  1  0
  5 15  1  0
M  END
$$$$
